1
Lattice="0.0 1.776963174799366 1.7950918069578328 1.8128614207549085 0.0 1.7950918069578328 1.8128614207549085 1.776963174799366 0.0" Properties=species:S:1:pos:R:3:forces:R:3:energies:R:1 B=0.8392121970516578 v0=11.565374360310324 scale=0.9971734987650762 energy=-0.006624318604739443 free_energy=-0.006624318604739443 strain=mono_vol_cons delta=0.01 pbc="T T T"
Cu       0.00000000       0.00000000       0.00000000       0.00000000       0.00000000       0.00000000      -0.00662432
