8
Lattice="0.0 5.26 5.26 5.26 0.0 5.26 5.26 5.26 0.0" Properties=species:S:1:pos:R:3 pbc="T T T"
Ar       0.00063175      -0.00134364      -0.00009798
Ar       2.62875230       2.63083308      -0.00058141
Ar       2.63146690      -0.00017092       2.63013702
Ar       5.25956283       2.62918880       2.63123446
Ar       0.00012708       2.63117043       2.63125070
Ar       2.63115244       5.26059905       2.62816784
Ar       2.63016133       2.62886352       5.26088197
Ar       5.26197529       5.26072910       5.26042818
8
Lattice="0.0 5.26 5.26 5.26 0.0 5.26 5.26 5.26 0.0" Properties=species:S:1:pos:R:3 pbc="T T T"
Ar      -0.00064802      -0.00133520       0.00023648
Ar       2.63035167       2.63063775       0.00026729
Ar       2.62867021      -0.00101167       2.63195487
Ar       5.25940318       2.63091628       2.62913458
Ar      -0.00035514       2.62988294       2.63030931
Ar       2.62815466       5.26029283       2.62935783
Ar       2.63037190       2.63015708       5.26110149
Ar       5.25972610       5.26100808       5.26005655
8
Lattice="0.0 5.26 5.26 5.26 0.0 5.26 5.26 5.26 0.0" Properties=species:S:1:pos:R:3 pbc="T T T"
Ar       0.00064720      -0.00123455      -0.00038071
Ar       2.63105752       2.63016171      -0.00140896
Ar       2.62958203       0.00062349       2.63072573
Ar       5.26045810       2.63084458       2.62993569
Ar       0.00003879       2.62822595       2.62917982
Ar       2.62811598       5.25947588       2.62900229
Ar       2.63021872       2.63002858       5.25927368
Ar       5.25994853       5.26034648       5.26028018
8
Lattice="0.0 5.26 5.26 5.26 0.0 5.26 5.26 5.26 0.0" Properties=species:S:1:pos:R:3 pbc="T T T"
Ar      -0.00064050      -0.00080407       0.00031793
Ar       2.63065247       2.62920006       0.00001101
Ar       2.62893777       0.00053970       2.63103402
Ar       5.26058623       2.62896625       2.63122650
Ar      -0.00082325       2.62863829       2.63143430
Ar       2.63067522       5.26068558       2.62827546
Ar       2.63100014       2.63142976       5.25911378
Ar       5.26028775       5.25947408       5.26149853
8
Lattice="0.0 5.26 5.26 5.26 0.0 5.26 5.26 5.26 0.0" Properties=species:S:1:pos:R:3 pbc="T T T"
Ar       0.00028399       0.00026002      -0.00104085
Ar       2.62981652       2.63006441       0.00024196
Ar       2.63034750       0.00120659       2.62868536
Ar       5.25984940       2.63232099       2.62865888
Ar      -0.00082745       2.63034623       2.62952122
Ar       2.63093593       5.26021406       2.63027430
Ar       2.63022126       2.63151084       5.26017373
Ar       5.25880045       5.25983549       5.26199651
8
Lattice="0.0 5.26 5.26 5.26 0.0 5.26 5.26 5.26 0.0" Properties=species:S:1:pos:R:3 pbc="T T T"
Ar      -0.00071048      -0.00076662       0.00216996
Ar       2.63107272       2.63117706       0.00127599
Ar       2.62926535      -0.00095817       2.63013911
Ar       5.26015624       2.62913605       2.63079195
Ar      -0.00048236       2.63059186       2.62921367
Ar       2.63026416       5.25928451       2.62992490
Ar       2.62891662       2.63007480       5.25761921
Ar       5.26072018       5.25931538       5.25860089
8
Lattice="0.0 5.26 5.26 5.26 0.0 5.26 5.26 5.26 0.0" Properties=species:S:1:pos:R:3 pbc="T T T"
Ar      -0.00000088       0.00044584      -0.00070827
Ar       2.62898896       2.63015959      -0.00045434
Ar       2.62967458       0.00161998       2.63050445
Ar       5.26088612       2.62733685       2.63011542
Ar       0.00046293       2.62864285       2.62941117
Ar       2.63025169       5.25873326       2.62886324
Ar       2.63039616       2.62893415       5.26114168
Ar       5.26007213       5.26033645       5.25952491
8
Lattice="0.0 5.26 5.26 5.26 0.0 5.26 5.26 5.26 0.0" Properties=species:S:1:pos:R:3 pbc="T T T"
Ar       0.00091685      -0.00226119       0.00110630
Ar       2.63082194       2.63024638       0.00015000
Ar       2.62959876       0.00081359       2.63256820
Ar       5.25915980       2.63085306       2.63253808
Ar       0.00006294       2.63037192       2.63065369
Ar       2.63020079       5.25979578       2.62910765
Ar       2.63125648       2.63064656       5.26086612
Ar       5.25961629       5.26157119       5.26026478
8
Lattice="0.0 5.26 5.26 5.26 0.0 5.26 5.26 5.26 0.0" Properties=species:S:1:pos:R:3 pbc="T T T"
Ar      -0.00132998       0.00116114      -0.00024581
Ar       2.62936543       2.63047710      -0.00087171
Ar       2.62839359      -0.00114677       2.63151217
Ar       5.25840574       2.62956249       2.62908786
Ar       0.00191451       2.63014685       2.63113512
Ar       2.62974394       5.25997759       2.62929390
Ar       2.62920471       2.62903313       5.25956370
Ar       5.26122226       5.26165839       5.26023007
8
Lattice="0.0 5.26 5.26 5.26 0.0 5.26 5.26 5.26 0.0" Properties=species:S:1:pos:R:3 pbc="T T T"
Ar       0.00030151       0.00142681      -0.00031480
Ar       2.63011684       2.63003927       0.00009790
Ar       2.62960775       0.00097788       2.63136609
Ar       5.26122373       2.63103349       2.62864099
Ar       0.00013608       2.62928128       2.62935493
Ar       2.63023817       5.26064366       2.63054259
Ar       2.62871616       2.63018278       5.26158698
Ar       5.25940722       5.26127503       5.26120151
