1
Lattice="0.0 2.58875 2.58875 2.58875 0.0 2.58875 2.58875 2.58875 0.0" Properties=species:S:1:pos:R:3 pbc="T T T"
Ar       0.00000000       0.00000000       0.00000000
1
Lattice="0.0 2.656875 2.656875 2.656875 0.0 2.656875 2.656875 2.656875 0.0" Properties=species:S:1:pos:R:3 pbc="T T T"
Ar       0.00000000       0.00000000       0.00000000
1
Lattice="0.0 2.725 2.725 2.725 0.0 2.725 2.725 2.725 0.0" Properties=species:S:1:pos:R:3 pbc="T T T"
Ar       0.00000000       0.00000000       0.00000000
1
Lattice="0.0 2.793125 2.793125 2.793125 0.0 2.793125 2.793125 2.793125 0.0" Properties=species:S:1:pos:R:3 pbc="T T T"
Ar       0.00000000       0.00000000       0.00000000
1
Lattice="0.0 2.86125 2.86125 2.86125 0.0 2.86125 2.86125 2.86125 0.0" Properties=species:S:1:pos:R:3 pbc="T T T"
Ar       0.00000000       0.00000000       0.00000000
