4
Lattice="4.8 0.0 0.0 0.0 4.8 0.0 0.0 0.0 4.8" Properties=species:S:1:pos:R:3 pbc="T T T"
Ar       0.00993428      -0.00276529       0.01295377
Ar       0.03046060       2.39531693       2.39531726
Ar       2.43158426       0.01534869       2.39061051
Ar       2.41085120       2.39073165      -0.00931460
