27
Lattice="0.0 6.0 6.0 6.0 0.0 6.0 6.0 6.0 0.0" Properties=species:S:1:pos:R:3 pbc="T T T"
Ar       0.00993428      -0.00276529       0.01295377
Ar       2.03046060       1.99531693      -0.00468274
Ar       4.03158426       4.01534869      -0.00938949
Ar       2.01085120      -0.00926835       1.99068540
Ar       4.00483925       1.96173440       1.96550164
Ar       5.98875425       3.97974338       2.00628495
Ar       3.98183952      -0.02824607       4.02931298
Ar       5.99548447       2.00135056       3.97150504
Ar       7.98911235       4.00221845       3.97698013
Ar       0.00751396       1.98798723       1.99416613
Ar       1.98796587       4.03704556       1.99973006
Ar       3.97884578       6.01645090       1.97558313
Ar       2.00417727       1.96080660       3.97343628
Ar       4.00393722       4.01476933       4.00342737
Ar       5.99768703       5.99397793       3.97042956
Ar       3.98560312       1.99078722       6.02114244
Ar       6.00687237       3.96473920       6.00648168
Ar       7.99229835       5.98646156       6.01223353
Ar       0.02061999       4.01862560       3.98321565
Ar       1.99381575       6.00662527       4.01951090
Ar       3.99041652       7.99628682       3.97787330
Ar       1.97607587       4.01625052       6.02712480
Ar       3.99855980       6.02007066       6.00723272
Ar       5.98709760       8.00722791       6.03076073
Ar       3.99928348       4.03129287       7.94760510
Ar       6.01643805       6.00174094       7.99401985
Ar       8.00183522       7.96024862       7.99560656
